Circuit: * C:\Users\tydav\gitLocals\ECE2260\Lab9\ltspice_resources\Draft1.asc


Date: Tue Apr 11 19:03:02 2023
Total elapsed time: 0.031 seconds.

tnom = 27
temp = 27
method = trap
totiter = 0
traniter = 0
tranpoints = 0
accept = 0
rejected = 0
matrix size = 3
fillins = 1
solver = Normal

