Circuit: * C:\Users\tydav\gitLocals\ECE2260\Lab9\ltspice_resources\highpass.asc


Date: Sat Apr 22 22:36:15 2023
Total elapsed time: 0.028 seconds.

tnom = 27
temp = 27
method = trap
totiter = 0
traniter = 0
tranpoints = 0
accept = 0
rejected = 0
matrix size = 3
fillins = 1
solver = Normal

