Circuit: * C:\Users\tydav\gitLocals\ECE2260\Lab3\Draft1.asc

Direct Newton iteration for .op point succeeded.

Date: Wed Feb 08 14:10:52 2023
Total elapsed time: 0.034 seconds.

tnom = 27
temp = 27
method = modified trap
totiter = 2099
traniter = 2096
tranpoints = 1049
accept = 1049
rejected = 0
matrix size = 2
fillins = 0
solver = Normal
Matrix Compiler1:       3 opcodes  0.0/[0.0]/0.0
Matrix Compiler2:      10 opcodes  0.0/[0.0]/0.0

