Circuit: * C:\Users\tydav\gitLocals\ECE2260\Lab3\Draft1.asc

.OP point found by inspection.

Date: Tue Feb 21 19:52:29 2023
Total elapsed time: 0.028 seconds.

tnom = 27
temp = 27
method = modified trap
totiter = 2746
traniter = 2746
tranpoints = 1374
accept = 1316
rejected = 58
matrix size = 3
fillins = 0
solver = Normal
Matrix Compiler1:       3 opcodes  0.0/[0.0]/0.1
Matrix Compiler2: 175 bytes object code size  0.1/0.1/[0.1]

