Circuit: * C:\Users\tydav\gitLocals\ECE2260\Lab3\lab3_00.asc

.OP point found by inspection.

Date: Thu Feb 09 17:49:46 2023
Total elapsed time: 0.165 seconds.

tnom = 27
temp = 27
method = modified trap
totiter = 2116
traniter = 2116
tranpoints = 1059
accept = 1058
rejected = 1
matrix size = 5
fillins = 0
solver = Normal
Matrix Compiler1:      13 opcodes  0.1/[0.1]/0.1
Matrix Compiler2: 355 bytes object code size  0.1/0.1/[0.1]

