Circuit: * C:\Users\tydav\gitLocals\ECE2260\Lab7\parallel.asc


Date: Thu Mar 16 19:59:06 2023
Total elapsed time: 0.043 seconds.

tnom = 27
temp = 27
method = trap
totiter = 0
traniter = 0
tranpoints = 0
accept = 0
rejected = 0
matrix size = 3
fillins = 1
solver = Normal

