Circuit: * C:\Users\tydav\gitLocals\ECE2260\Lab7\series.asc


Date: Thu Mar 16 19:13:22 2023
Total elapsed time: 0.035 seconds.

tnom = 27
temp = 27
method = trap
totiter = 0
traniter = 0
tranpoints = 0
accept = 0
rejected = 0
matrix size = 5
fillins = 0
solver = Normal

